
***********************************************************
**Nodes and Elements
** written by write_nodes_elements
*INCLUDE,INPUT=C:/Users/vdwalts/Desktop/Box_Mesh_Nodes_elem.inp 

***********************************************************
** Element sets for materials and FEM element type (solid, shell, beam)
** written by write_element_sets_material_and_femelement_type function
*ELSET,ELSET=MechanicalMaterialSolid
Eall

***********************************************************
** Node set for fixed constraint
** Node set for PlaneRotation constraint
** Node sets for prescribed displacement constraint
** Node sets for loads
** Node sets for temperature constraint
** written by write_node_sets_constraints 
*INCLUDE,INPUT=C:/Users/vdwalts/Desktop/Box_Mesh_Node_sets.inp 

***********************************************************
** Materials
** written by write_materials function
** Young's modulus unit is MPa = N/mm2
** Density's unit is t/mm^3
** Thermal conductivity unit is kW/mm/K = t*mm/K*s^3
** Specific Heat unit is kJ/t/K = mm^2/s^2/K
**FreeCAD material name: Steel
*MATERIAL, NAME=MechanicalMaterial
*ELASTIC 
200000 ,  0.300
*DENSITY 
7.900e-09, 
*CONDUCTIVITY 
50 , 
*EXPANSION 
1.2e-005 , 
*SPECIFIC HEAT 
5e+008 , 

***********************************************************
** Sections
** written by write_femelementsets function
*SOLID SECTION, ELSET=MechanicalMaterialSolid, MATERIAL=MechanicalMaterial

***********************************************************
** PlaneRotation Constaints
** written by write_constraints_planerotation function

***********************************************************
** Contact Constaints
** written by write_constraints_contact function

***********************************************************
** One step is needed to calculate the mechanical analysis of FreeCAD
** loads are applied quasi-static, means without involving the time dimension
** written by write_step_begin function
*STEP
*CONTROLS,PARAMETERS=TIME INCREMENTATION
4,8,9,200,10,400,,200,
0.25,0.5,0.75,0.85,,,1.5,
*STATIC

***********************************************************
** Constaints
** written by write_constraints_fixed function
*BOUNDARY
FemConstraintFixed,1
FemConstraintFixed,2
FemConstraintFixed,3


***********************************************************
** Displacement constraint applied
** written by write_constraints_displacement function


***********************************************************
** Frequency analysis
** written by write_frequency function
*FREQUENCY
10,0.0,1000000.0

***********************************************************
** Node loads
** written by write_constraints_force
*INCLUDE,INPUT=C:/Users/vdwalts/Desktop/Box_Mesh_Contraints_Force.inp 


***********************************************************
** Element + CalculiX face + load in [MPa]
** written by write_constraints_pressure
*INCLUDE,INPUT=C:/Users/vdwalts/Desktop/Box_Mesh_Contraints_Pressure.inp 


***********************************************************
** Outputs --> frd file
** written by write_outputs_types function
*NODE FILE
U 
*EL FILE
S, E
** outputs --> dat file
*NODE PRINT , NSET=Nall 
U 
*EL PRINT , ELSET=Eall 
S 

***********************************************************
** written by write_step_end function
*END STEP 

***********************************************************
** CalculiX Input file
** written by write_footer function
**   written by    --> FreeCAD 0.16.Unknown
**   written on    --> Fri Jul 15 13:26:49 2016
**   file name     --> cube.fcstd
**   analysis name --> MechanicalAnalysis
**
**
**
**   Units
**
**   Geometry (mesh data)        --> m
**   Materials (Young's modulus) --> N/m2 = MPa
**   Loads (nodal loads)         --> N
**
